1
9
.tran 1m 110m 100m
3
1
IN
V
1
L-OUT
V
1
R-OUT
V
