version 2
1
9
.tran 1u 10m{return}{return}{return}{return}.kicad adjustpaths{return}.save all{return}.probe alli
2
1
V(Net-_D1-A_)
 
1
V(U_a)
 
