version 2
1
9
.tran 10u 150m 0{return}.kicad adjustpaths{return}.save all{return}.probe alli
1
1
V(U_aus)
 
