version 2
2
9
.tran 1m 10m{return}.kicad adjustpaths{return}.save all{return}.probe alli
2
1
V(U_a)
 
1
V(WHATISTHIS)
 
1
.ac dec 10 1 1Meg{return}{return}.kicad adjustpaths{return}.save all{return}.probe alli
0
