# Unofficial LTSpice Wiki Page: http://ltwiki.org/index.php?title=Standard.dio Date of latest edit	02:34, 4 July 2013

.model 1N5817 D(Is=31.7u Rs=.051 N=1.373 Cjo=190p M=.3 Eg=.69 Xti=2 Iave=1 Vpk=20 mfg=OnSemi type=Schottky)
.model 1N5818 D(Is=31.7u Rs=.051 N=1.373 Cjo=160p M=.38 Eg=.69 Xti=2 Iave=1 Vpk=30 mfg=OnSemi type=Schottky)
.model 1N5819 D(Is=31.7u Rs=.051 N=1.373 Cjo=110p M=.35 Eg=.69 Xti=2 Iave=1 Vpk=40 mfg=OnSemi type=Schottky)

