version 2
2
1
.ac dec 10 1 1Meg{return}.kicad adjustpaths{return}.save all{return}.probe alli
2
9
V(U_aus)
 
5
V(U_aus)
 
9
.tran 100u 1{return}.kicad adjustpaths{return}.save all{return}.probe alli
2
1
V(/U_ein)
 
1
V(U_aus)
 
