version 2
1
9
.tran 1u 1m{return}.kicad adjustpaths{return}.save all{return}.probe alli
2
1
V(U_a)
 
1
V(U_e)
 
