version 2
1
9
.tran 100n 1m{return}{return}{return}{return}.kicad adjustpaths{return}.save all{return}.probe alli
2
1
V(U_a)
 
1
V(U_tr)
 
