version 2
2
9
.tran 1m 10m{return}.kicad adjustpaths{return}.save all{return}.probe alli
4
1
V(+12V)
 
1
V(-12V)
 
1
V(U_aus)
 
1
V(U_ein)
 
1
.ac dec 10 1 1Meg{return}.kicad adjustpaths{return}.save all{return}.probe alli
2
9
V(U_aus)
 
5
V(U_aus)
 
