version 2
1
9
.tran 1u 10n{return}.kicad adjustpaths{return}.save all{return}.probe alli
2
1
V(/Ua)
 
1
V(/Uein)
 
