version 2
1
9
.tran 10n 10u{return}.kicad adjustpaths{return}.save all{return}.probe alli
1
1
V(/Ua)
 
