version 2
1
1
.ac dec 10 1 1meg{return}.kicad adjustpaths{return}.save all{return}.probe alli
2
9
V(U_a)
 
5
V(U_a)
 
