version 2
1
1
.ac dec 10 1 1Meg{return}.kicad adjustpaths{return}.save all{return}.probe alli
2
9
V(U_aus)
 
5
V(U_aus)
 
